 962.00         305.6742        18.4839
 0.0000	        305.6742	18.4839	-11.5090 8.5949
253.0000	306.4019	18.3434	-8.5571	12.2208
333.0000	307.3406	17.9518	-6.9551	14.9152
557.0000	307.6129	17.8253	-6.3342	17.4031
862.0000	307.9163	17.7857	-3.1266	17.7320
1074.0000	308.8859	17.1560	1.6141	18.4495
1472.0000	310.9824	12.5447	9.0028	15.5933
1777.0000	311.9883	9.2154	11.9044	14.1871
2081.0000	313.3521	5.8231	11.5108	16.4391
2386.0000	314.7983	5.2345	10.2889	17.8209
2741.0000	315.5077	4.9390	10.8033	18.7119
2996.0000	316.5118	4.5503	11.8322	20.4940
3301.0000	317.3637	4.0350	11.5108	16.4391
3910.0000	318.3867	3.1270	13.0049	10.9124
4520.0000	320.1486	2.8765	20.9857	9.7858
5129.0000	323.3144	1.4837	26.1047	9.5013
5453.0000	324.3828	1.1826	23.6082	13.6302
5739.0000	325.0562	1.1881	25.1378	9.1494
7143.0000	325.3857	0.8841	28.5169	10.3793
7263.0000	325.4828	0.7720	29.4886	10.7330
8784.8100	330.0803	0.6440	34.8110	12.6702
9193.0000	334.3012	0.5166	28.8728	5.0911
9397.0000	340.0011	0.4639	27.8272	-6.4563
10311.0000	340.5408	0.1944	26.5832	-8.6755
11943.0000	345.1938	0.0062	28.1817	2.4656
12714.8400	351.0686	0.0032	31.3811	0.0000
13664.0000	367.7637	0.0008	16.4571	0.0000
14883.0000	380.1334	0.0004	14.9860	5.4545
15343.1000	385.2412	0.0003	13.6790	2.4120
16253.0000	405.4236	0.0005	5.4783	3.8360
16712.0000	407.6697	0.0003	9.8059	5.6615
17017.0000	413.1049	0.0004	6.9618	1.8654
17321.0000	417.2458	0.0003	4.8342	1.7595
17931.0000	424.2866	0.0003	2.6454	3.1527
18005.9100	425.1558	0.0003	3.5428	2.9728
18236.0000	433.6575	0.0003	1.0877	-1.0877
19150.0000	456.1557	0.0004	-6.7467	4.7241
20979.0000	510.6534	0.0016	-7.0975	5.9555



